Links: 

Notebook for part A: https://github.com/scalesim-project/scalesim-tutorial-materials/blob/main/scaledemo.ipynb
Notebook for part B: https://github.com/scalesim-project/scalesim-tutorial-materials/blob/main/scalesim_tutorial1_template.ipynb



## Code for run_scale_sim() method

def run_scale_sim():
    # 1. Read the topology file
    topofilename = tutorial_path + '/files/tutorial1_topofile.csv'

    # 2. Read the config file
    config_filename = tutorial_path + '/files/config/scale_config_64x64_os.cfg'

    # 3. Launch a SCALE-Sim run
    sim = scalesim( save_disk_space=True, verbose=True,
                    config=config_filename, topology=topofilename
        )

    sim.run_scale(top_path=tutorial_path + '/tutorial1_runs')

run_scale_sim()

## Code for compare_dataflows() method

def compare_dataflows():
    run_dir = tutorial_path + '/tutorial1_runs'
    os_run_name = 'scale_sim_tutorial1_64x64_os'
    ws_run_name = 'scale_sim_tutorial1_64x64_ws'
    is_run_name = 'scale_sim_tutorial1_64x64_is'

    os_rpt = reporter()
    ws_rpt = reporter()
    is_rpt = reporter()

    os_rpt.load_data(data_dir=run_dir, run_name=os_run_name)
    ws_rpt.load_data(data_dir=run_dir, run_name=ws_run_name)
    is_rpt.load_data(data_dir=run_dir, run_name=is_run_name)

    # Prepare arrays for plotting
    x_tick_lables = ['64x64_OS', '64x64_WS', '64x64_IS']
    y_legend = ['Layer0', 'Layer1', 'Layer2']

    os_runtimes = os_rpt.get_compute_cycles_all_layer()
    ws_runtimes = ws_rpt.get_compute_cycles_all_layer()
    is_runtimes = is_rpt.get_compute_cycles_all_layer()

    # Transpose y data
    all_y = np.asarray(os_runtimes).reshape((1,3))
    all_y = np.concatenate((all_y, np.asarray(ws_runtimes).reshape((1,3))), axis=0)
    all_y = np.concatenate((all_y, np.asarray(is_runtimes).reshape((1,3))), axis=0)

    y_series = np.transpose(all_y)

    plot_stacked_bar(x=x_tick_lables, y_series_np=y_series, 
                     legends=y_legend, title='Runtime vs dataflow',
                     y_axis_label='Runtime (Cycles)')

compare_dataflows()

## Code for compare_aspect_ratios()

def compare_aspect_ratios():
    run_dir = tutorial_path + '/tutorial1_runs'
    x_tick_labels = []
    all_y = np.zeros((1,1))
    data_valid = False
    y_legend = ['Layer0', 'Layer1', 'Layer2']

    for rpow in range(2, 11):
        rows = int(math.pow(2, rpow))
        cols = int(round(2 ** 12 / rows))

        for df in ['os', 'is', 'ws']:
            run_name = 'scale_sim_tutorial1_' + str(rows) \
                        + 'x' + str(cols) + '_' + str(df)
            x_tick_labels += [str(rows) + 'x' + str(cols) + '_' + str(df)]
            rpt = reporter()
            rpt.load_data(data_dir=run_dir, run_name=run_name)
            runtimes = rpt.get_compute_cycles_all_layer()

            if not data_valid:
                all_y = np.asarray(runtimes).reshape((1,3))
                data_valid = True
            else:
                all_y = np.concatenate((all_y, np.asarray(runtimes).reshape((1, 3))), axis=0)

    y_series = np.transpose(all_y)

    plot_stacked_bar(x=x_tick_labels, y_series_np=y_series, legends=y_legend, 
                     title='Runtime vs dataflow',
                     y_axis_label='Runtime (Cycles)')

compare_aspect_ratios()
